CM Kompatybilnosc Elektromagnetyczna - Zadanie 1
CM Struktura przewodow
CE
GW 1 1 -0.050 -0.100 0.000 +0.050 -0.100 0.000 0.005
GW 2 1 +0.050 -0.100 0.000 +0.050 +0.000 0.000 0.005
GW 3 1 +0.050 +0.000 0.000 +0.150 +0.000 0.000 0.005
GW 4 1 +0.150 +0.000 0.000 +0.150 +0.100 0.000 0.005
GW 5 1 +0.150 +0.100 0.000 -0.150 +0.100 0.000 0.005
GW 6 1 -0.150 +0.100 0.000 -0.150 +0.000 0.000 0.005
GW 7 1 -0.150 +0.000 0.000 -0.050 +0.000 0.000 0.005
GW 8 1 -0.050 +0.000 0.000 -0.050 -0.100 0.000 0.005
GE 0
EX 0 1 1 0 1.0 0
FR 0 1 0 0 0.5e3 0
RP 0 1 360 1000 90.0 0.0 0.0 1.0 10000.0
XQ
